6
-5.3745922993295949e+02 frame 0   xyz file generated by TeraChem
    Co     0.0000200000    0.0000000000    0.0000000000
     C     1.9600200000    0.0000000000    0.0000000000
     N     3.1181010000   -0.0000000000   -0.0000000000
     F    -0.6566790000   -1.2656970000   -1.3592860000
     F    -0.6566850000    1.8100220000   -0.4164860000
     F    -0.6566870000   -0.5443430000    1.7757610000
6
-5.3746469461487663e+02 frame 1   xyz file generated by TeraChem
    Co    -0.0336689487    0.0091704186   -0.0106000361
     C     1.9773327160    0.0173197745    0.0020687916
     N     3.1534180466    0.0197724827    0.0106258695
     F    -0.6224250880   -1.2689201973   -1.3143601481
     F    -0.6757277820    1.7660472314   -0.4125765445
     F    -0.6908389397   -0.5434076394    1.7248310561
6
-5.3746596598713359e+02 frame 2   xyz file generated by TeraChem
    Co    -0.0560707664    0.0112678577   -0.0234811284
     C     2.0086898708    0.0355267885    0.0028810397
     N     3.1884478302    0.0493916972    0.0205889643
     F    -0.6044140600   -1.2688484677   -1.2990637442
     F    -0.7023050222    1.7280864269   -0.3755367816
     F    -0.7262577937   -0.5554422754    1.6746006654
6
-5.3746630438608577e+02 frame 3   xyz file generated by TeraChem
    Co    -0.0576464492    0.0084144918   -0.0249315537
     C     2.0285412715    0.0406166389    0.0043421165
     N     3.2075230627    0.0627002045    0.0229284431
     F    -0.6126132923   -1.2614289674   -1.3199075916
     F    -0.7138185245    1.7282530745   -0.3408861304
     F    -0.7438960182   -0.5785734763    1.6584437470
6
-5.3746653915372974e+02 frame 4   xyz file generated by TeraChem
    Co    -0.0590241611    0.0094397229   -0.0239375452
     C     2.0518691935    0.0556182598    0.0115170054
     N     3.2284474054    0.0905623367    0.0313281712
     F    -0.6008676084   -1.2614968511   -1.3390233661
     F    -0.7384306000    1.7310778634   -0.3084266931
     F    -0.7739041762   -0.6252194051    1.6285314772
6
-5.3746673051784194e+02 frame 5   xyz file generated by TeraChem
    Co    -0.0572887694    0.0128301640   -0.0191771909
     C     2.0711017269    0.0744387833    0.0205369178
     N     3.2457876607    0.1233210700    0.0401763075
     F    -0.5930918387   -1.2529841366   -1.3479387384
     F    -0.7598891626    1.7306459706   -0.2811739867
     F    -0.7985295916   -0.6882699665    1.5875657776
6
-5.3746666031370603e+02 frame 6   xyz file generated by TeraChem
    Co    -0.0529781713    0.0163247481   -0.0103890208
     C     2.0788421613    0.0997019906    0.0326678241
     N     3.2521584476    0.1662090710    0.0518586099
     F    -0.5799827632   -1.2424432811   -1.3505922337
     F    -0.7800677461    1.7263264605   -0.2657853432
     F    -0.8098818803   -0.7661371707    1.5422293183
6
-5.3746692800171263e+02 frame 7   xyz file generated by TeraChem
    Co    -0.0512776722    0.0127160389   -0.0139982970
     C     2.0612980606    0.0871603584    0.0246414512
     N     3.2360922396    0.1455846676    0.0435080413
     F    -0.5900412581   -1.2510943231   -1.3374928235
     F    -0.7598458506    1.7255022726   -0.2948884397
     F    -0.7881354869   -0.7198871439    1.5782191899
6
-5.3746697801135588e+02 frame 8   xyz file generated by TeraChem
    Co    -0.0484444243    0.0097653774   -0.0144252739
     C     2.0540613454    0.0941313221    0.0271371792
     N     3.2291011418    0.1593862153    0.0487971402
     F    -0.5852216018   -1.2532382166   -1.3372296324
     F    -0.7571620003    1.7189914530   -0.2996618992
     F    -0.7842444415   -0.7290542574    1.5753716321
6
-5.3746702232306268e+02 frame 9   xyz file generated by TeraChem
    Co    -0.0421181778    0.0018843122   -0.0177693784
     C     2.0438253398    0.1110265292    0.0328934346
     N     3.2183538585    0.1931461779    0.0628078798
     F    -0.5764099385   -1.2614697901   -1.3403200684
     F    -0.7558863733    1.7055429688   -0.3031110941
     F    -0.7796746914   -0.7501482908    1.5654884791
6
-5.3746703648056825e+02 frame 10   xyz file generated by TeraChem
    Co    -0.0391791853   -0.0040525177   -0.0207416216
     C     2.0413434015    0.1211153654    0.0364896712
     N     3.2149443032    0.2135348000    0.0719563302
     F    -0.5708343484   -1.2692687227   -1.3433826476
     F    -0.7583561597    1.6972028977   -0.3047642901
     F    -0.7798279395   -0.7585498658    1.5604317933
6
-5.3746705786143843e+02 frame 11   xyz file generated by TeraChem
    Co    -0.0350066009   -0.0153480098   -0.0262982073
     C     2.0405137578    0.1390956334    0.0418746398
     N     3.2119516059    0.2494288747    0.0864726806
     F    -0.5638757138   -1.2834380411   -1.3484413861
     F    -0.7671381799    1.6814280179   -0.3075688738
     F    -0.7783546362   -0.7711844493    1.5539504337
6
-5.3746707050047394e+02 frame 12   xyz file generated by TeraChem
    Co    -0.0323616415   -0.0256215165   -0.0302578269
     C     2.0414888741    0.1562470727    0.0464978480
     N     3.2108351110    0.2820898535    0.0977085948
     F    -0.5569757789   -1.2957753429   -1.3524545108
     F    -0.7800092357    1.6649641372   -0.3121935297
     F    -0.7748869589   -0.7819221160    1.5506886817
6
-5.3746707779085227e+02 frame 13   xyz file generated by TeraChem
    Co    -0.0316893275   -0.0307169034   -0.0313329066
     C     2.0433760995    0.1652941068    0.0484305332
     N     3.2118621660    0.2977917642    0.1012527139
     F    -0.5553308769   -1.3005169949   -1.3535514051
     F    -0.7898845102    1.6549388785   -0.3163485563
     F    -0.7702430895   -0.7868087622    1.5515388361
6
-5.3746708102261562e+02 frame 14   xyz file generated by TeraChem
    Co    -0.0326606579   -0.0302666061   -0.0302203662
     C     2.0448662299    0.1655207732    0.0482503763
     N     3.2137866588    0.2959137849    0.0989134207
     F    -0.5568269782   -1.2986642437   -1.3528368980
     F    -0.7937411548    1.6534421677   -0.3184645425
     F    -0.7673336611   -0.7859637861    1.5543471774
6
-5.3746708156800105e+02 frame 15   xyz file generated by TeraChem
    Co    -0.0329822268   -0.0291619892   -0.0297039371
     C     2.0449837840    0.1647603598    0.0481391464
     N     3.2142898993    0.2928701458    0.0975097958
     F    -0.5574968731   -1.2971735874   -1.3523257366
     F    -0.7945076531    1.6538511873   -0.3189028301
     F    -0.7661964460   -0.7851640674    1.5552727475
6
-5.3746708230412014e+02 frame 16   xyz file generated by TeraChem
    Co    -0.0330403057   -0.0282859983   -0.0295175942
     C     2.0449069615    0.1638705066    0.0483129683
     N     3.2144697911    0.2901456976    0.0969617057
     F    -0.5576338717   -1.2960419661   -1.3523288034
     F    -0.7943154783    1.6546500098   -0.3188150002
     F    -0.7662966209   -0.7843562273    1.5553759096
